<?xml version="1.0" encoding="UTF-8"?>

<!-- generated on 2025-02-19 10:50:05 by Eclipse SUMO netedit Version 1.22.0
<neteditConfiguration xmlns:xsi="http://www.w3.org/2001/XMLSchema-instance" xsi:noNamespaceSchemaLocation="http://sumo.dlr.de/xsd/neteditConfiguration.xsd">

    <input>
        <sumo-net-file value="lightSync.net.xml"/>
    </input>

    <output>
        <output-file value="lightSync.net.xml"/>
    </output>

    <processing>
        <geometry.min-radius.fix.railways value="false"/>
        <geometry.max-grade.fix value="false"/>
        <offset.disable-normalization value="true"/>
        <lefthand value="0"/>
    </processing>

    <junctions>
        <no-turnarounds value="true"/>
        <junctions.corner-detail value="5"/>
        <junctions.limit-turn-speed value="5.50"/>
        <rectangular-lane-cut value="0"/>
    </junctions>

    <pedestrian>
        <walkingareas value="0"/>
    </pedestrian>

</neteditConfiguration>
-->

<net version="1.20" junctionCornerDetail="5" limitTurnSpeed="5.50" xmlns:xsi="http://www.w3.org/2001/XMLSchema-instance" xsi:noNamespaceSchemaLocation="http://sumo.dlr.de/xsd/net_file.xsd">

    <location netOffset="0.00,0.00" convBoundary="0.00,-150.00,1100.00,150.00" origBoundary="-10000000000.00,-10000000000.00,10000000000.00,10000000000.00" projParameter="!"/>

    <edge id=":J1_0" function="internal">
        <lane id=":J1_0_0" index="0" speed="13.89" length="20.80" shape="248.40,10.40 248.40,-10.40"/>
    </edge>
    <edge id=":J1_1" function="internal">
        <lane id=":J1_1_0" index="0" speed="13.89" length="14.40" shape="257.20,4.80 242.80,4.80"/>
        <lane id=":J1_1_1" index="1" speed="13.89" length="14.40" shape="257.20,1.60 242.80,1.60"/>
    </edge>
    <edge id=":J1_3" function="internal">
        <lane id=":J1_3_0" index="0" speed="13.89" length="20.80" shape="251.60,-10.40 251.60,10.40"/>
    </edge>
    <edge id=":J1_4" function="internal">
        <lane id=":J1_4_0" index="0" speed="13.89" length="14.40" shape="242.80,-4.80 257.20,-4.80"/>
        <lane id=":J1_4_1" index="1" speed="13.89" length="14.40" shape="242.80,-1.60 257.20,-1.60"/>
    </edge>
    <edge id=":J15_0" function="internal">
        <lane id=":J15_0_0" index="0" speed="13.89" length="0.10" shape="50.00,4.80 50.00,4.80"/>
        <lane id=":J15_0_1" index="1" speed="13.89" length="0.10" shape="50.00,1.60 50.00,1.60"/>
    </edge>
    <edge id=":J15_2" function="internal">
        <lane id=":J15_2_0" index="0" speed="13.89" length="0.10" shape="50.00,-4.80 50.00,-4.80"/>
        <lane id=":J15_2_1" index="1" speed="13.89" length="0.10" shape="50.00,-1.60 50.00,-1.60"/>
    </edge>
    <edge id=":J2_0" function="internal">
        <lane id=":J2_0_0" index="0" speed="13.89" length="20.80" shape="448.40,10.40 448.40,-10.40"/>
    </edge>
    <edge id=":J2_1" function="internal">
        <lane id=":J2_1_0" index="0" speed="13.89" length="14.40" shape="457.20,4.80 442.80,4.80"/>
        <lane id=":J2_1_1" index="1" speed="13.89" length="14.40" shape="457.20,1.60 442.80,1.60"/>
    </edge>
    <edge id=":J2_3" function="internal">
        <lane id=":J2_3_0" index="0" speed="13.89" length="20.80" shape="451.60,-10.40 451.60,10.40"/>
    </edge>
    <edge id=":J2_4" function="internal">
        <lane id=":J2_4_0" index="0" speed="13.89" length="14.40" shape="442.80,-4.80 457.20,-4.80"/>
        <lane id=":J2_4_1" index="1" speed="13.89" length="14.40" shape="442.80,-1.60 457.20,-1.60"/>
    </edge>
    <edge id=":J26_0" function="internal">
        <lane id=":J26_0_0" index="0" speed="13.89" length="0.10" shape="248.40,100.00 248.40,100.00"/>
    </edge>
    <edge id=":J26_1" function="internal">
        <lane id=":J26_1_0" index="0" speed="13.89" length="0.10" shape="251.60,100.00 251.60,100.00"/>
    </edge>
    <edge id=":J27_0" function="internal">
        <lane id=":J27_0_0" index="0" speed="13.89" length="0.10" shape="448.40,100.00 448.40,100.00"/>
    </edge>
    <edge id=":J27_1" function="internal">
        <lane id=":J27_1_0" index="0" speed="13.89" length="0.10" shape="451.60,100.00 451.60,100.00"/>
    </edge>
    <edge id=":J28_0" function="internal">
        <lane id=":J28_0_0" index="0" speed="13.89" length="0.10" shape="648.40,100.00 648.40,100.00"/>
    </edge>
    <edge id=":J28_1" function="internal">
        <lane id=":J28_1_0" index="0" speed="13.89" length="0.10" shape="651.60,100.00 651.60,100.00"/>
    </edge>
    <edge id=":J29_0" function="internal">
        <lane id=":J29_0_0" index="0" speed="13.89" length="0.10" shape="848.40,100.00 848.40,100.00"/>
    </edge>
    <edge id=":J29_1" function="internal">
        <lane id=":J29_1_0" index="0" speed="13.89" length="0.10" shape="851.60,100.00 851.60,100.00"/>
    </edge>
    <edge id=":J3_0" function="internal">
        <lane id=":J3_0_0" index="0" speed="13.89" length="20.80" shape="648.40,10.40 648.40,-10.40"/>
    </edge>
    <edge id=":J3_1" function="internal">
        <lane id=":J3_1_0" index="0" speed="13.89" length="14.40" shape="657.20,4.80 642.80,4.80"/>
        <lane id=":J3_1_1" index="1" speed="13.89" length="14.40" shape="657.20,1.60 642.80,1.60"/>
    </edge>
    <edge id=":J3_3" function="internal">
        <lane id=":J3_3_0" index="0" speed="13.89" length="20.80" shape="651.60,-10.40 651.60,10.40"/>
    </edge>
    <edge id=":J3_4" function="internal">
        <lane id=":J3_4_0" index="0" speed="13.89" length="14.40" shape="642.80,-4.80 657.20,-4.80"/>
        <lane id=":J3_4_1" index="1" speed="13.89" length="14.40" shape="642.80,-1.60 657.20,-1.60"/>
    </edge>
    <edge id=":J30_0" function="internal">
        <lane id=":J30_0_0" index="0" speed="13.89" length="0.10" shape="248.40,-100.00 248.40,-100.00"/>
    </edge>
    <edge id=":J30_1" function="internal">
        <lane id=":J30_1_0" index="0" speed="13.89" length="0.10" shape="251.60,-100.00 251.60,-100.00"/>
    </edge>
    <edge id=":J31_0" function="internal">
        <lane id=":J31_0_0" index="0" speed="13.89" length="0.10" shape="448.40,-100.00 448.40,-100.00"/>
    </edge>
    <edge id=":J31_1" function="internal">
        <lane id=":J31_1_0" index="0" speed="13.89" length="0.10" shape="451.60,-100.00 451.60,-100.00"/>
    </edge>
    <edge id=":J32_0" function="internal">
        <lane id=":J32_0_0" index="0" speed="13.89" length="0.10" shape="648.40,-100.00 648.40,-100.00"/>
    </edge>
    <edge id=":J32_1" function="internal">
        <lane id=":J32_1_0" index="0" speed="13.89" length="0.10" shape="651.60,-100.00 651.60,-100.00"/>
    </edge>
    <edge id=":J33_0" function="internal">
        <lane id=":J33_0_0" index="0" speed="13.89" length="0.10" shape="848.40,-100.00 848.40,-100.00"/>
    </edge>
    <edge id=":J33_1" function="internal">
        <lane id=":J33_1_0" index="0" speed="13.89" length="0.10" shape="851.60,-100.00 851.60,-100.00"/>
    </edge>
    <edge id=":J4_0" function="internal">
        <lane id=":J4_0_0" index="0" speed="13.89" length="20.80" shape="848.40,10.40 848.40,-10.40"/>
    </edge>
    <edge id=":J4_1" function="internal">
        <lane id=":J4_1_0" index="0" speed="13.89" length="14.40" shape="857.20,4.80 842.80,4.80"/>
        <lane id=":J4_1_1" index="1" speed="13.89" length="14.40" shape="857.20,1.60 842.80,1.60"/>
    </edge>
    <edge id=":J4_3" function="internal">
        <lane id=":J4_3_0" index="0" speed="13.89" length="20.80" shape="851.60,-10.40 851.60,10.40"/>
    </edge>
    <edge id=":J4_4" function="internal">
        <lane id=":J4_4_0" index="0" speed="13.89" length="14.40" shape="842.80,-4.80 857.20,-4.80"/>
        <lane id=":J4_4_1" index="1" speed="13.89" length="14.40" shape="842.80,-1.60 857.20,-1.60"/>
    </edge>
    <edge id=":J5_0" function="internal">
        <lane id=":J5_0_0" index="0" speed="13.89" length="0.10" shape="1050.00,4.80 1050.00,4.80"/>
        <lane id=":J5_0_1" index="1" speed="13.89" length="0.10" shape="1050.00,1.60 1050.00,1.60"/>
    </edge>
    <edge id=":J5_2" function="internal">
        <lane id=":J5_2_0" index="0" speed="13.89" length="0.10" shape="1050.00,-4.80 1050.00,-4.80"/>
        <lane id=":J5_2_1" index="1" speed="13.89" length="0.10" shape="1050.00,-1.60 1050.00,-1.60"/>
    </edge>

    <edge id="-E0_tang" from="J1" to="J15" priority="-1">
        <lane id="-E0_tang_0" index="0" speed="13.89" length="192.80" shape="242.80,4.80 50.00,4.80"/>
        <lane id="-E0_tang_1" index="1" speed="13.89" length="192.80" shape="242.80,1.60 50.00,1.60"/>
    </edge>
    <edge id="-E10_tras" from="J28" to="J3" priority="-1">
        <lane id="-E10_tras_0" index="0" speed="13.89" length="89.60" shape="648.40,100.00 648.40,10.40"/>
    </edge>
    <edge id="-E11_tras" from="J32" to="J3" priority="-1">
        <lane id="-E11_tras_0" index="0" speed="13.89" length="89.60" shape="651.60,-100.00 651.60,-10.40"/>
    </edge>
    <edge id="-E12_tras" from="J29" to="J4" priority="-1">
        <lane id="-E12_tras_0" index="0" speed="13.89" length="89.60" shape="848.40,100.00 848.40,10.40"/>
    </edge>
    <edge id="-E13_tras" from="J33" to="J4" priority="-1">
        <lane id="-E13_tras_0" index="0" speed="13.89" length="89.60" shape="851.60,-100.00 851.60,-10.40"/>
    </edge>
    <edge id="-E2" from="J2" to="J1" priority="-1">
        <lane id="-E2_0" index="0" speed="13.89" length="185.60" shape="442.80,4.80 257.20,4.80"/>
        <lane id="-E2_1" index="1" speed="13.89" length="185.60" shape="442.80,1.60 257.20,1.60"/>
    </edge>
    <edge id="-E3" from="J3" to="J2" priority="-1">
        <lane id="-E3_0" index="0" speed="13.89" length="185.60" shape="642.80,4.80 457.20,4.80"/>
        <lane id="-E3_1" index="1" speed="13.89" length="185.60" shape="642.80,1.60 457.20,1.60"/>
    </edge>
    <edge id="-E4" from="J4" to="J3" priority="-1">
        <lane id="-E4_0" index="0" speed="13.89" length="185.60" shape="842.80,4.80 657.20,4.80"/>
        <lane id="-E4_1" index="1" speed="13.89" length="185.60" shape="842.80,1.60 657.20,1.60"/>
    </edge>
    <edge id="-E5_tang" from="J5" to="J4" priority="-1">
        <lane id="-E5_tang_0" index="0" speed="13.89" length="192.80" shape="1050.00,4.80 857.20,4.80"/>
        <lane id="-E5_tang_1" index="1" speed="13.89" length="192.80" shape="1050.00,1.60 857.20,1.60"/>
    </edge>
    <edge id="-E6_tras" from="J26" to="J1" priority="-1">
        <lane id="-E6_tras_0" index="0" speed="13.89" length="89.60" shape="248.40,100.00 248.40,10.40"/>
    </edge>
    <edge id="-E7_tras" from="J30" to="J1" priority="-1">
        <lane id="-E7_tras_0" index="0" speed="13.89" length="89.60" shape="251.60,-100.00 251.60,-10.40"/>
    </edge>
    <edge id="-E8_tras" from="J27" to="J2" priority="-1">
        <lane id="-E8_tras_0" index="0" speed="13.89" length="89.60" shape="448.40,100.00 448.40,10.40"/>
    </edge>
    <edge id="-E9_tras" from="J31" to="J2" priority="-1">
        <lane id="-E9_tras_0" index="0" speed="13.89" length="89.60" shape="451.60,-100.00 451.60,-10.40"/>
    </edge>
    <edge id="E0.66_tang" from="J15" to="J1" priority="-1">
        <lane id="E0.66_tang_0" index="0" speed="13.89" length="192.80" shape="50.00,-4.80 242.80,-4.80"/>
        <lane id="E0.66_tang_1" index="1" speed="13.89" length="192.80" shape="50.00,-1.60 242.80,-1.60"/>
    </edge>
    <edge id="E10_tras" from="J3" to="J28" priority="-1">
        <lane id="E10_tras_0" index="0" speed="13.89" length="89.60" shape="651.60,10.40 651.60,100.00"/>
    </edge>
    <edge id="E11_tras" from="J3" to="J32" priority="-1">
        <lane id="E11_tras_0" index="0" speed="13.89" length="89.60" shape="648.40,-10.40 648.40,-100.00"/>
    </edge>
    <edge id="E12_tras" from="J4" to="J29" priority="-1">
        <lane id="E12_tras_0" index="0" speed="13.89" length="89.60" shape="851.60,10.40 851.60,100.00"/>
    </edge>
    <edge id="E13_tras" from="J4" to="J33" priority="-1">
        <lane id="E13_tras_0" index="0" speed="13.89" length="89.60" shape="848.40,-10.40 848.40,-100.00"/>
    </edge>
    <edge id="E2" from="J1" to="J2" priority="-1">
        <lane id="E2_0" index="0" speed="13.89" length="185.60" shape="257.20,-4.80 442.80,-4.80"/>
        <lane id="E2_1" index="1" speed="13.89" length="185.60" shape="257.20,-1.60 442.80,-1.60"/>
    </edge>
    <edge id="E3" from="J2" to="J3" priority="-1">
        <lane id="E3_0" index="0" speed="13.89" length="185.60" shape="457.20,-4.80 642.80,-4.80"/>
        <lane id="E3_1" index="1" speed="13.89" length="185.60" shape="457.20,-1.60 642.80,-1.60"/>
    </edge>
    <edge id="E4" from="J3" to="J4" priority="-1">
        <lane id="E4_0" index="0" speed="13.89" length="185.60" shape="657.20,-4.80 842.80,-4.80"/>
        <lane id="E4_1" index="1" speed="13.89" length="185.60" shape="657.20,-1.60 842.80,-1.60"/>
    </edge>
    <edge id="E5_tang" from="J4" to="J5" priority="-1">
        <lane id="E5_tang_0" index="0" speed="13.89" length="192.80" shape="857.20,-4.80 1050.00,-4.80"/>
        <lane id="E5_tang_1" index="1" speed="13.89" length="192.80" shape="857.20,-1.60 1050.00,-1.60"/>
    </edge>
    <edge id="E6_tras" from="J1" to="J26" priority="-1">
        <lane id="E6_tras_0" index="0" speed="13.89" length="89.60" shape="251.60,10.40 251.60,100.00"/>
    </edge>
    <edge id="E7_tras" from="J1" to="J30" priority="-1">
        <lane id="E7_tras_0" index="0" speed="13.89" length="89.60" shape="248.40,-10.40 248.40,-100.00"/>
    </edge>
    <edge id="E8_tras" from="J2" to="J27" priority="-1">
        <lane id="E8_tras_0" index="0" speed="13.89" length="89.60" shape="451.60,10.40 451.60,100.00"/>
    </edge>
    <edge id="E9_tras" from="J2" to="J31" priority="-1">
        <lane id="E9_tras_0" index="0" speed="13.89" length="89.60" shape="448.40,-10.40 448.40,-100.00"/>
    </edge>
    <edge id="rad1_down_end" from="J30" to="J9" priority="-1">
        <lane id="rad1_down_end_0" index="0" speed="13.89" length="50.00" shape="248.40,-100.00 248.40,-150.00"/>
    </edge>
    <edge id="rad1_down_start" from="J9" to="J30" priority="-1">
        <lane id="rad1_down_start_0" index="0" speed="13.89" length="50.00" shape="251.60,-150.00 251.60,-100.00"/>
    </edge>
    <edge id="rad1_up_end" from="J26" to="J8" priority="-1">
        <lane id="rad1_up_end_0" index="0" speed="13.89" length="50.00" shape="251.60,100.00 251.60,150.00"/>
    </edge>
    <edge id="rad1_up_start" from="J8" to="J26" priority="-1">
        <lane id="rad1_up_start_0" index="0" speed="13.89" length="50.00" shape="248.40,150.00 248.40,100.00"/>
    </edge>
    <edge id="rad2_down_end" from="J31" to="J11" priority="-1">
        <lane id="rad2_down_end_0" index="0" speed="13.89" length="50.00" shape="448.40,-100.00 448.40,-150.00"/>
    </edge>
    <edge id="rad2_down_start" from="J11" to="J31" priority="-1">
        <lane id="rad2_down_start_0" index="0" speed="13.89" length="50.00" shape="451.60,-150.00 451.60,-100.00"/>
    </edge>
    <edge id="rad2_up_end" from="J27" to="J10" priority="-1">
        <lane id="rad2_up_end_0" index="0" speed="13.89" length="50.00" shape="451.60,100.00 451.60,150.00"/>
    </edge>
    <edge id="rad2_up_start" from="J10" to="J27" priority="-1">
        <lane id="rad2_up_start_0" index="0" speed="13.89" length="50.00" shape="448.40,150.00 448.40,100.00"/>
    </edge>
    <edge id="rad3_down_end" from="J32" to="J13" priority="-1">
        <lane id="rad3_down_end_0" index="0" speed="13.89" length="50.00" shape="648.40,-100.00 648.40,-150.00"/>
    </edge>
    <edge id="rad3_down_start" from="J13" to="J32" priority="-1">
        <lane id="rad3_down_start_0" index="0" speed="13.89" length="50.00" shape="651.60,-150.00 651.60,-100.00"/>
    </edge>
    <edge id="rad3_up_end" from="J28" to="J12" priority="-1">
        <lane id="rad3_up_end_0" index="0" speed="13.89" length="50.00" shape="651.60,100.00 651.60,150.00"/>
    </edge>
    <edge id="rad3_up_start" from="J12" to="J28" priority="-1">
        <lane id="rad3_up_start_0" index="0" speed="13.89" length="50.00" shape="648.40,150.00 648.40,100.00"/>
    </edge>
    <edge id="rad4_down_end" from="J33" to="J16" priority="-1">
        <lane id="rad4_down_end_0" index="0" speed="13.89" length="50.00" shape="848.40,-100.00 848.40,-150.00"/>
    </edge>
    <edge id="rad4_down_start" from="J16" to="J33" priority="-1">
        <lane id="rad4_down_start_0" index="0" speed="13.89" length="50.00" shape="851.60,-150.00 851.60,-100.00"/>
    </edge>
    <edge id="rad4_up_end" from="J29" to="J14" priority="-1">
        <lane id="rad4_up_end_0" index="0" speed="13.89" length="50.00" shape="851.60,100.00 851.60,150.00"/>
    </edge>
    <edge id="rad4_up_start" from="J14" to="J29" priority="-1">
        <lane id="rad4_up_start_0" index="0" speed="13.89" length="50.00" shape="848.40,150.00 848.40,100.00"/>
    </edge>
    <edge id="tan1_end" from="J15" to="J0" priority="-1">
        <lane id="tan1_end_0" index="0" speed="13.89" length="50.00" shape="50.00,4.80 0.00,4.80"/>
        <lane id="tan1_end_1" index="1" speed="13.89" length="50.00" shape="50.00,1.60 0.00,1.60"/>
    </edge>
    <edge id="tan1_start" from="J0" to="J15" priority="-1">
        <lane id="tan1_start_0" index="0" speed="13.89" length="50.00" shape="0.00,-4.80 50.00,-4.80"/>
        <lane id="tan1_start_1" index="1" speed="13.89" length="50.00" shape="0.00,-1.60 50.00,-1.60"/>
    </edge>
    <edge id="tan2_end" from="J5" to="J17" priority="-1">
        <lane id="tan2_end_0" index="0" speed="13.89" length="50.00" shape="1050.00,-4.80 1100.00,-4.80"/>
        <lane id="tan2_end_1" index="1" speed="13.89" length="50.00" shape="1050.00,-1.60 1100.00,-1.60"/>
    </edge>
    <edge id="tan2_start" from="J17" to="J5" priority="-1">
        <lane id="tan2_start_0" index="0" speed="13.89" length="50.00" shape="1100.00,4.80 1050.00,4.80"/>
        <lane id="tan2_start_1" index="1" speed="13.89" length="50.00" shape="1100.00,1.60 1050.00,1.60"/>
    </edge>

    <tlLogic id="J1" type="static" programID="0" offset="0">
        <phase duration="28" state="rGGrGG"/>
        <phase duration="2"  state="ryyryy"/>
        <phase duration="28" state="GrrGrr"/>
        <phase duration="2"  state="yrryrr"/>
    </tlLogic>
    <tlLogic id="J2" type="static" programID="0" offset="0">
        <phase duration="28" state="rGGrGG"/>
        <phase duration="2"  state="ryyryy"/>
        <phase duration="28" state="GrrGrr"/>
        <phase duration="2"  state="yrryrr"/>
    </tlLogic>
    <tlLogic id="J3" type="static" programID="0" offset="0">
        <phase duration="28" state="rGGrGG"/>
        <phase duration="2"  state="ryyryy"/>
        <phase duration="28" state="GrrGrr"/>
        <phase duration="2"  state="yrryrr"/>
    </tlLogic>
    <tlLogic id="J4" type="static" programID="0" offset="0">
        <phase duration="28" state="rGGrGG"/>
        <phase duration="2"  state="ryyryy"/>
        <phase duration="28" state="GrrGrr"/>
        <phase duration="2"  state="yrryrr"/>
    </tlLogic>

    <junction id="J0" type="dead_end" x="0.00" y="0.00" incLanes="tan1_end_0 tan1_end_1" intLanes="" shape="0.00,0.00 0.00,6.40 0.00,0.00"/>
    <junction id="J1" type="traffic_light" x="250.00" y="0.00" incLanes="-E6_tras_0 -E2_0 -E2_1 -E7_tras_0 E0.66_tang_0 E0.66_tang_1" intLanes=":J1_0_0 :J1_1_0 :J1_1_1 :J1_3_0 :J1_4_0 :J1_4_1" shape="246.80,10.40 253.20,10.40 253.64,8.18 254.20,7.40 254.98,6.84 255.98,6.51 257.20,6.40 257.20,-6.40 254.98,-6.84 254.20,-7.40 253.64,-8.18 253.31,-9.18 253.20,-10.40 246.80,-10.40 246.36,-8.18 245.80,-7.40 245.02,-6.84 244.02,-6.51 242.80,-6.40 242.80,6.40 245.02,6.84 245.80,7.40 246.36,8.18 246.69,9.18">
        <request index="0" response="110110" foes="110110" cont="0"/>
        <request index="1" response="000000" foes="001001" cont="0"/>
        <request index="2" response="000000" foes="001001" cont="0"/>
        <request index="3" response="110110" foes="110110" cont="0"/>
        <request index="4" response="000000" foes="001001" cont="0"/>
        <request index="5" response="000000" foes="001001" cont="0"/>
    </junction>
    <junction id="J10" type="dead_end" x="450.00" y="150.00" incLanes="rad2_up_end_0" intLanes="" shape="450.00,150.00 453.20,150.00 450.00,150.00"/>
    <junction id="J11" type="dead_end" x="450.00" y="-150.00" incLanes="rad2_down_end_0" intLanes="" shape="450.00,-150.00 446.80,-150.00 450.00,-150.00"/>
    <junction id="J12" type="dead_end" x="650.00" y="150.00" incLanes="rad3_up_end_0" intLanes="" shape="650.00,150.00 653.20,150.00 650.00,150.00"/>
    <junction id="J13" type="dead_end" x="650.00" y="-150.00" incLanes="rad3_down_end_0" intLanes="" shape="650.00,-150.00 646.80,-150.00 650.00,-150.00"/>
    <junction id="J14" type="dead_end" x="850.00" y="150.00" incLanes="rad4_up_end_0" intLanes="" shape="850.00,150.00 853.20,150.00 850.00,150.00"/>
    <junction id="J15" type="priority" x="50.00" y="0.00" incLanes="-E0_tang_0 -E0_tang_1 tan1_start_0 tan1_start_1" intLanes=":J15_0_0 :J15_0_1 :J15_2_0 :J15_2_1" shape="50.00,6.40 50.00,-6.40 50.00,6.40">
        <request index="0" response="0000" foes="0000" cont="0"/>
        <request index="1" response="0000" foes="0000" cont="0"/>
        <request index="2" response="0000" foes="0000" cont="0"/>
        <request index="3" response="0000" foes="0000" cont="0"/>
    </junction>
    <junction id="J16" type="dead_end" x="850.00" y="-150.00" incLanes="rad4_down_end_0" intLanes="" shape="850.00,-150.00 846.80,-150.00 850.00,-150.00"/>
    <junction id="J17" type="dead_end" x="1100.00" y="0.00" incLanes="tan2_end_0 tan2_end_1" intLanes="" shape="1100.00,0.00 1100.00,-6.40 1100.00,0.00"/>
    <junction id="J2" type="traffic_light" x="450.00" y="0.00" incLanes="-E8_tras_0 -E3_0 -E3_1 -E9_tras_0 E2_0 E2_1" intLanes=":J2_0_0 :J2_1_0 :J2_1_1 :J2_3_0 :J2_4_0 :J2_4_1" shape="446.80,10.40 453.20,10.40 453.64,8.18 454.20,7.40 454.98,6.84 455.98,6.51 457.20,6.40 457.20,-6.40 454.98,-6.84 454.20,-7.40 453.64,-8.18 453.31,-9.18 453.20,-10.40 446.80,-10.40 446.36,-8.18 445.80,-7.40 445.02,-6.84 444.02,-6.51 442.80,-6.40 442.80,6.40 445.02,6.84 445.80,7.40 446.36,8.18 446.69,9.18">
        <request index="0" response="110110" foes="110110" cont="0"/>
        <request index="1" response="000000" foes="001001" cont="0"/>
        <request index="2" response="000000" foes="001001" cont="0"/>
        <request index="3" response="110110" foes="110110" cont="0"/>
        <request index="4" response="000000" foes="001001" cont="0"/>
        <request index="5" response="000000" foes="001001" cont="0"/>
    </junction>
    <junction id="J26" type="priority" x="250.00" y="100.00" incLanes="rad1_up_start_0 E6_tras_0" intLanes=":J26_0_0 :J26_1_0" shape="246.80,100.00 253.20,100.00 246.80,100.00">
        <request index="0" response="00" foes="00" cont="0"/>
        <request index="1" response="00" foes="00" cont="0"/>
    </junction>
    <junction id="J27" type="priority" x="450.00" y="100.00" incLanes="rad2_up_start_0 E8_tras_0" intLanes=":J27_0_0 :J27_1_0" shape="446.80,100.00 453.20,100.00 446.80,100.00">
        <request index="0" response="00" foes="00" cont="0"/>
        <request index="1" response="00" foes="00" cont="0"/>
    </junction>
    <junction id="J28" type="priority" x="650.00" y="100.00" incLanes="rad3_up_start_0 E10_tras_0" intLanes=":J28_0_0 :J28_1_0" shape="646.80,100.00 653.20,100.00 646.80,100.00">
        <request index="0" response="00" foes="00" cont="0"/>
        <request index="1" response="00" foes="00" cont="0"/>
    </junction>
    <junction id="J29" type="priority" x="850.00" y="100.00" incLanes="rad4_up_start_0 E12_tras_0" intLanes=":J29_0_0 :J29_1_0" shape="846.80,100.00 853.20,100.00 846.80,100.00">
        <request index="0" response="00" foes="00" cont="0"/>
        <request index="1" response="00" foes="00" cont="0"/>
    </junction>
    <junction id="J3" type="traffic_light" x="650.00" y="0.00" incLanes="-E10_tras_0 -E4_0 -E4_1 -E11_tras_0 E3_0 E3_1" intLanes=":J3_0_0 :J3_1_0 :J3_1_1 :J3_3_0 :J3_4_0 :J3_4_1" shape="646.80,10.40 653.20,10.40 653.64,8.18 654.20,7.40 654.98,6.84 655.98,6.51 657.20,6.40 657.20,-6.40 654.98,-6.84 654.20,-7.40 653.64,-8.18 653.31,-9.18 653.20,-10.40 646.80,-10.40 646.36,-8.18 645.80,-7.40 645.02,-6.84 644.02,-6.51 642.80,-6.40 642.80,6.40 645.02,6.84 645.80,7.40 646.36,8.18 646.69,9.18">
        <request index="0" response="110110" foes="110110" cont="0"/>
        <request index="1" response="000000" foes="001001" cont="0"/>
        <request index="2" response="000000" foes="001001" cont="0"/>
        <request index="3" response="110110" foes="110110" cont="0"/>
        <request index="4" response="000000" foes="001001" cont="0"/>
        <request index="5" response="000000" foes="001001" cont="0"/>
    </junction>
    <junction id="J30" type="priority" x="250.00" y="-100.00" incLanes="E7_tras_0 rad1_down_start_0" intLanes=":J30_0_0 :J30_1_0" shape="246.80,-100.00 253.20,-100.00 246.80,-100.00">
        <request index="0" response="00" foes="00" cont="0"/>
        <request index="1" response="00" foes="00" cont="0"/>
    </junction>
    <junction id="J31" type="priority" x="450.00" y="-100.00" incLanes="E9_tras_0 rad2_down_start_0" intLanes=":J31_0_0 :J31_1_0" shape="446.80,-100.00 453.20,-100.00 446.80,-100.00">
        <request index="0" response="00" foes="00" cont="0"/>
        <request index="1" response="00" foes="00" cont="0"/>
    </junction>
    <junction id="J32" type="priority" x="650.00" y="-100.00" incLanes="E11_tras_0 rad3_down_start_0" intLanes=":J32_0_0 :J32_1_0" shape="646.80,-100.00 653.20,-100.00 646.80,-100.00">
        <request index="0" response="00" foes="00" cont="0"/>
        <request index="1" response="00" foes="00" cont="0"/>
    </junction>
    <junction id="J33" type="priority" x="850.00" y="-100.00" incLanes="E13_tras_0 rad4_down_start_0" intLanes=":J33_0_0 :J33_1_0" shape="846.80,-100.00 853.20,-100.00 846.80,-100.00">
        <request index="0" response="00" foes="00" cont="0"/>
        <request index="1" response="00" foes="00" cont="0"/>
    </junction>
    <junction id="J4" type="traffic_light" x="850.00" y="0.00" incLanes="-E12_tras_0 -E5_tang_0 -E5_tang_1 -E13_tras_0 E4_0 E4_1" intLanes=":J4_0_0 :J4_1_0 :J4_1_1 :J4_3_0 :J4_4_0 :J4_4_1" shape="846.80,10.40 853.20,10.40 853.64,8.18 854.20,7.40 854.98,6.84 855.98,6.51 857.20,6.40 857.20,-6.40 854.98,-6.84 854.20,-7.40 853.64,-8.18 853.31,-9.18 853.20,-10.40 846.80,-10.40 846.36,-8.18 845.80,-7.40 845.02,-6.84 844.02,-6.51 842.80,-6.40 842.80,6.40 845.02,6.84 845.80,7.40 846.36,8.18 846.69,9.18">
        <request index="0" response="110110" foes="110110" cont="0"/>
        <request index="1" response="000000" foes="001001" cont="0"/>
        <request index="2" response="000000" foes="001001" cont="0"/>
        <request index="3" response="110110" foes="110110" cont="0"/>
        <request index="4" response="000000" foes="001001" cont="0"/>
        <request index="5" response="000000" foes="001001" cont="0"/>
    </junction>
    <junction id="J5" type="priority" x="1050.00" y="0.00" incLanes="tan2_start_0 tan2_start_1 E5_tang_0 E5_tang_1" intLanes=":J5_0_0 :J5_0_1 :J5_2_0 :J5_2_1" shape="1050.00,6.40 1050.00,-6.40 1050.00,6.40">
        <request index="0" response="0000" foes="0000" cont="0"/>
        <request index="1" response="0000" foes="0000" cont="0"/>
        <request index="2" response="0000" foes="0000" cont="0"/>
        <request index="3" response="0000" foes="0000" cont="0"/>
    </junction>
    <junction id="J8" type="dead_end" x="250.00" y="150.00" incLanes="rad1_up_end_0" intLanes="" shape="250.00,150.00 253.20,150.00 250.00,150.00"/>
    <junction id="J9" type="dead_end" x="250.00" y="-150.00" incLanes="rad1_down_end_0" intLanes="" shape="250.00,-150.00 246.80,-150.00 250.00,-150.00"/>

    <connection from="-E0_tang" to="tan1_end" fromLane="0" toLane="0" via=":J15_0_0" dir="s" state="M"/>
    <connection from="-E0_tang" to="tan1_end" fromLane="1" toLane="1" via=":J15_0_1" dir="s" state="M"/>
    <connection from="-E10_tras" to="E11_tras" fromLane="0" toLane="0" via=":J3_0_0" tl="J3" linkIndex="0" dir="s" state="o"/>
    <connection from="-E11_tras" to="E10_tras" fromLane="0" toLane="0" via=":J3_3_0" tl="J3" linkIndex="3" dir="s" state="o"/>
    <connection from="-E12_tras" to="E13_tras" fromLane="0" toLane="0" via=":J4_0_0" tl="J4" linkIndex="0" dir="s" state="o"/>
    <connection from="-E13_tras" to="E12_tras" fromLane="0" toLane="0" via=":J4_3_0" tl="J4" linkIndex="3" dir="s" state="o"/>
    <connection from="-E2" to="-E0_tang" fromLane="0" toLane="0" via=":J1_1_0" tl="J1" linkIndex="1" dir="s" state="O"/>
    <connection from="-E2" to="-E0_tang" fromLane="1" toLane="1" via=":J1_1_1" tl="J1" linkIndex="2" dir="s" state="O"/>
    <connection from="-E3" to="-E2" fromLane="0" toLane="0" via=":J2_1_0" tl="J2" linkIndex="1" dir="s" state="O"/>
    <connection from="-E3" to="-E2" fromLane="1" toLane="1" via=":J2_1_1" tl="J2" linkIndex="2" dir="s" state="O"/>
    <connection from="-E4" to="-E3" fromLane="0" toLane="0" via=":J3_1_0" tl="J3" linkIndex="1" dir="s" state="O"/>
    <connection from="-E4" to="-E3" fromLane="1" toLane="1" via=":J3_1_1" tl="J3" linkIndex="2" dir="s" state="O"/>
    <connection from="-E5_tang" to="-E4" fromLane="0" toLane="0" via=":J4_1_0" tl="J4" linkIndex="1" dir="s" state="O"/>
    <connection from="-E5_tang" to="-E4" fromLane="1" toLane="1" via=":J4_1_1" tl="J4" linkIndex="2" dir="s" state="O"/>
    <connection from="-E6_tras" to="E7_tras" fromLane="0" toLane="0" via=":J1_0_0" tl="J1" linkIndex="0" dir="s" state="o"/>
    <connection from="-E7_tras" to="E6_tras" fromLane="0" toLane="0" via=":J1_3_0" tl="J1" linkIndex="3" dir="s" state="o"/>
    <connection from="-E8_tras" to="E9_tras" fromLane="0" toLane="0" via=":J2_0_0" tl="J2" linkIndex="0" dir="s" state="o"/>
    <connection from="-E9_tras" to="E8_tras" fromLane="0" toLane="0" via=":J2_3_0" tl="J2" linkIndex="3" dir="s" state="o"/>