<?xml version="1.0" encoding="UTF-8"?>

<!-- generated on 2025-01-27 15:22:42 by Eclipse SUMO netedit Version 1.21.0-->
<routes xmlns:xsi="http://www.w3.org/2001/XMLSchema-instance" xsi:noNamespaceSchemaLocation="http://sumo.dlr.de/xsd/routes_file.xsd">

    <vType id="normal_car" vClass="passenger" maxSpeed="40" speedFactor="1.0" speedDev="0.0" sigma="0.0" accel="40" decel="40"/>
    <!-- <vType id="normal_car" vClass="passenger" maxSpeed="40" speedFactor="1.0" speedDev="0.0" sigma="0.0" accel="0.1" decel="0.1"/> -->

    <!-- <vType id="sporty_car" vClass="passenger" maxSpeed="60" speedFactor="1.3" speedDev="0.1" sigma="0.1" />
    <vType id="trailer" vClass="trailer"  maxSpeed="30" speedFactor="1" speedDev="0.05" />
    <vType id="coach" vClass="coach"  maxSpeed="30" speedFactor="1" speedDev="0.05" />
     -->

    <!-- tangential flows -->
    <flow id="tan_ltr" type="normal_car" begin="0" end="50000" period="exp(0.3)" from="tan1_start" to="tan2_end" departSpeed="max" departLane="best"/>
    <flow id="tan_rtl" type="normal_car" begin="0" end="50000" period="exp(0.3)" from="tan2_start" to="tan1_end" departSpeed="max" departLane="best"/>
    
    <!-- radial flows -->
    <flow id="rad1_utd" type="normal_car" begin="0" end="50000" period="exp(0.1)" from="rad1_up_start" to="rad1_down_end" departSpeed="avg" departLane="best"/>
    <flow id="rad1_dtu" type="normal_car" begin="0" end="50000" period="exp(0.1)" from="rad1_down_start" to="rad1_up_end" departSpeed="avg" departLane="best"/>
    
    <flow id="rad2_utd" type="normal_car" begin="0" end="50000" period="exp(0.1)" from="rad2_up_start" to="rad2_down_end" departSpeed="avg" departLane="best"/>
    <flow id="rad2_dtu" type="normal_car" begin="0" end="50000" period="exp(0.1)" from="rad2_down_start" to="rad2_up_end" departSpeed="avg" departLane="best"/>

    <flow id="rad3_utd" type="normal_car" begin="0" end="50000" period="exp(0.1)" from="rad3_up_start" to="rad3_down_end" departSpeed="avg" departLane="best" />
    <flow id="rad3_dtu" type="normal_car" begin="0" end="50000" period="exp(0.1)" from="rad3_down_start" to="rad3_up_end" departSpeed="avg" departLane="best" />
    
    <flow id="rad4_utd" type="normal_car" begin="0" end="50000" period="exp(0.1)" from="rad4_up_start" to="rad4_down_end" departSpeed="avg" departLane="best" />
    <flow id="rad4_dtu" type="normal_car" begin="0" end="50000" period="exp(0.1)" from="rad4_down_start" to="rad4_up_end" departSpeed="avg" departLane="best" />
    
</routes>
